401
[[385,304],[386,220],[387,308],[388,216],[389,47],[390,43],[391,52],[392,309],[393,313],[394,258],[395,262],[396,48],[397,267],[398,263],[399,215]]
Zn      29.873235     24.756954      7.553363
C       30.417600     21.469117      8.428641
C       29.096587     21.832874      8.130187
C       27.961133     20.961938      8.255650
C       26.857075     21.710518      8.007383
C       27.307516     23.036964      7.686408
N       28.668901     23.070090      7.748876
C       33.266445     25.335087      7.582760
C       32.834940     24.047061      7.945951
C       33.649117     23.048471      8.583697
C       32.860445     21.964624      8.793592
C       31.549000     22.293512      8.307859
N       31.567276     23.559785      7.803329
C       26.478630     24.143482      7.431541
C       26.908602     25.420450      7.045050
C       26.033781     26.524595      6.758537
C       26.820938     27.607791      6.541162
C       28.184792     27.170159      6.661839
N       28.201864     25.833378      6.927044
C       29.319081     27.995164      6.616449
C       30.655643     27.567931      6.679887
C       31.791259     28.419005      6.456624
C       32.899281     27.668128      6.682280
C       32.448109     26.361131      7.080238
N       31.089320     26.319084      6.998458
C       35.221076     29.481011     19.055266
C       35.994842     28.844655     18.083556
C       35.437322     28.485906     16.864328
C       34.066195     28.710959     16.621880
C       33.265865     29.286252     17.639743
C       33.868527     29.709293     18.842853
C       33.484863     28.402981     15.373071
C       32.124383     28.588638     15.175986
C       31.327903     29.096388     16.200764
C       31.885122     29.462262     17.415808
C       31.041462     30.081971     18.451038
N       31.723810     30.622687     19.542979
C       33.081490     30.478797     19.826307
C       36.289188     27.923227     15.799090
N       35.686233     27.795605     14.544959
C       34.340799     27.990289     14.245842
C       30.939338     31.474820     20.403253
C       36.572214     27.555092     13.430362
C       30.658420     31.082213     21.710659
C       29.856267     31.910209     22.488292
C       29.297053     33.079503     21.975561
C       29.639482     33.465995     20.676780
C       30.468160     32.684361     19.881197
C       36.536059     26.327745     12.768727
C       37.352695     26.155723     11.655640
C       38.208453     27.169536     11.231299
C       38.262254     28.364067     11.947460
C       37.425759     28.587808     13.035408
O       29.834226     30.166023     18.362838
O       33.575643     30.984377     20.811401
O       33.919254     27.859762     13.115802
O       37.450053     27.622057     15.965436
H       27.999931     19.910817      8.490683
H       25.832881     21.377769      8.025941
H       24.957702     26.474091      6.719069
H       26.499486     28.608529      6.305367
H       33.141289     21.034912      9.259619
H       34.683184     23.163020      8.864525
H       33.928961     27.967080      6.571257
H       31.740144     29.448076      6.138655
C       30.629549     20.134371      9.029845
C       31.182807     17.716082     10.323133
C       31.557542     19.236285      8.494215
C       29.936829     19.768907     10.190493
C       30.199690     18.571253     10.829886
C       31.822969     18.033118      9.122360
C       25.044664     23.997117      7.766364
C       22.464716     23.571122      8.753730
C       24.227176     23.010693      7.210522
C       24.510293     24.829931      8.757295
C       23.228693     24.637831      9.237544
C       22.948130     22.800045      7.694289
C       29.092371     29.449744      6.764713
C       28.453152     32.082430      7.436156
C       29.605184     30.034898      7.929079
C       28.317858     30.229668      5.904358
C       28.010676     31.541178      6.229285
C       29.291428     31.335196      8.266119
C       34.671371     25.684995      7.874759
C       37.305820     26.329081      8.583235
C       34.951538     26.824474      8.638871
C       35.740565     24.895483      7.438835
C       37.041309     25.212609      7.786574
C       36.249598     27.157765      8.972886
H       38.937266     29.145328     11.616305
H       37.328337     25.221995     11.105862
H       29.679399     31.775958      9.176717
H       30.219776     29.439726      8.595515
H       27.967362     29.812108      4.967335
H       27.398220     32.142061      5.567766
H       29.675491     18.306864     11.740514
H       29.213393     20.454803     10.618164
H       32.552507     17.345937      8.711270
H       32.066344     19.483959      7.569317
H       37.048881     28.656483     18.255902
H       35.673305     29.818540     19.981078
H       31.689385     28.347240     14.212015
H       30.265243     29.240969     16.047072
H       29.235825     34.391774     20.280908
H       29.663674     31.635408     23.516164
H       37.865518     24.592482      7.454643
H       35.548617     24.041155      6.799350
H       34.134365     27.439503      8.999047
H       36.447056     28.056586      9.543983
H       24.594268     22.409727      6.386418
H       22.325897     22.015442      7.281166
H       25.129868     25.609611      9.186824
N       28.145822     33.401291      7.773083
Zn      27.807383     25.154562     26.978670
C       31.159532     25.562532     27.646292
C       30.462534     26.685743     27.166994
C       31.070857     27.892513     26.676643
C       30.066090     28.714198     26.281602
C       28.832061     28.012994     26.504027
N       29.106994     26.789455     27.038542
C       28.017660     21.865723     27.878793
C       29.162918     22.655718     28.071785
C       30.424552     22.154878     28.542148
C       31.296134     23.195245     28.521531
C       30.582219     24.332204     28.004014
N       29.279509     23.985197     27.810866
C       27.561552     28.486156     26.134983
C       26.365927     27.754381     26.173215
C       25.079435     28.271222     25.797302
C       24.206323     27.233578     25.841080
C       24.940232     26.080291     26.284615
N       26.238938     26.436067     26.497158
C       24.425207     24.777337     26.400765
C       25.112919     23.663745     26.902665
C       24.547769     22.349196     27.040848
C       25.549512     21.527390     27.442546
C       26.729026     22.336665     27.583896
N       26.419412     23.630715     27.288601
H       32.129371     28.084006     26.612152
H       30.159358     29.698742     25.854525
H       24.865099     29.296671     25.544094
H       23.155265     27.262996     25.607753
H       32.324384     23.197009     28.845007
H       30.604619     21.144448     28.872769
H       25.484267     20.470177     27.638641
H       23.516157     22.091741     26.863225
C       32.634796     25.633903     27.651909
C       35.429948     25.784238     27.504515
C       33.326415     26.680707     28.270298
C       33.373592     24.643837     26.992577
C       34.752333     24.702179     26.935182
C       34.705827     26.755725     28.199514
C       27.502471     29.843234     25.549523
C       27.594988     32.355824     24.322694
C       28.010931     30.951493     26.233517
C       26.981689     30.031078     24.263425
C       27.016825     31.272244     23.654699
C       28.044682     32.198346     25.636141
C       23.105848     24.521304     25.781502
C       20.763736     24.228991     24.284275
C       23.038802     23.600184     24.728831
C       21.948621     25.219811     26.132555
C       20.786538     25.074302     25.395845
C       21.878768     23.435850     23.995776
C       28.246904     20.411589     27.729906
C       28.528377     17.726830     27.020265
C       29.126320     20.030747     26.708758
C       27.569904     19.418829     28.440150
C       27.718783     18.084304     28.098261
C       29.268254     18.705471     26.353348
H       21.841889     22.734559     23.170788
H       23.926547     23.040269     24.455585
H       21.957613     25.875928     26.995395
H       19.898264     25.638855     25.652156
H       35.306672     23.913579     26.441381
H       32.853704     23.833454     26.493823
H       35.236530     27.573835     28.671854
H       32.776153     27.426162     28.833475
H       27.182767     17.315019     28.641086
H       26.935610     19.691784     29.275843
H       29.666987     20.795312     26.161752
H       29.938992     18.420105     25.551686
H       28.373021     30.831322     27.248460
H       28.451780     33.051824     26.164615
H       26.583289     29.181043     23.719892
N       19.592846     24.112160     23.550326
C       28.352868     33.922407     22.725370
N       27.645005     33.613715     23.734037
H       26.632661     31.403671     22.650173
H       28.236751     34.935948     22.339731
N       38.634808     26.641438      8.869025
C       39.029912     27.041452     10.007995
H       40.070599     27.352206     10.095233
C       25.683124     21.943455     19.274015
C       25.243947     22.425394     18.037834
C       24.892099     21.547072     17.023943
C       24.988814     20.153506     17.240271
C       25.460169     19.668329     18.486542
C       25.804717     20.581047     19.508210
C       24.617619     19.228439     16.241454
C       24.732765     17.864713     16.464399
C       25.208691     17.389349     17.684636
C       25.561386     18.276742     18.690488
C       26.049795     17.750368     19.974963
N       26.443643     18.701817     20.919221
C       26.322669     20.081717     20.800381
C       24.375985     22.055845     15.736346
N       23.915289     21.085074     14.847788
C       24.032353     19.704266     14.976492
C       27.018143     18.142831     22.123635
C       23.181926     21.535593     13.688904
C       28.268713     17.525499     22.028691
C       28.747595     16.834356     23.135981
C       28.031674     16.804708     24.330746
C       26.825007     17.494429     24.417888
C       26.284213     18.143153     23.309922
C       23.868524     21.979811     12.562146
C       23.128416     22.366133     11.449638
C       21.732312     22.359012     11.461436
C       21.081712     21.900115     12.612664
C       21.787455     21.473257     13.729961
O       26.125316     16.565362     20.214962
O       26.649142     20.816052     21.712317
O       23.641682     18.960452     14.103506
O       24.317553     23.230982     15.445572
H       23.657950     22.680630     10.562298
H       25.164689     23.493578     17.866621
H       25.948037     22.640102     20.060940
H       24.436808     17.177105     15.679793
H       25.299003     16.324218     17.866843
H       26.279566     17.480471     25.354508
H       29.697696     16.315177     23.077966
C       20.878993     22.830597     10.359663
C       28.536010     15.997480     25.468002
H       19.997206     21.875457     12.626187
H       19.810522     22.735691     10.562428
H       28.781476     14.961029     25.238764
N       21.185871     23.330970      9.233531
N       28.681874     16.385555     26.667079
H       22.830374     25.275178     10.017868
C       36.816927     23.279461     18.011716
C       36.466253     22.478294     16.924014
C       35.220148     21.869425     16.868250
C       34.294280     22.068721     17.913570
C       34.677960     22.817552     19.053561
C       35.948409     23.429505     19.083719
C       33.004580     21.501628     17.861922
C       32.135160     21.658681     18.929683
C       32.533015     22.341483     20.077669
C       33.795585     22.911307     20.151260
C       34.255673     23.516889     21.414277
N       35.521950     24.094164     21.384675
C       36.374465     24.179609     20.280765
C       34.897096     20.937308     15.770247
N       33.607973     20.405949     15.780353
C       32.596253     20.698579     16.697480
C       36.061464     24.543549     22.646471
C       33.285897     19.392236     14.805533
C       37.076012     23.784547     23.234384
C       37.578851     24.204348     24.460898
C       37.045631     25.312664     25.116646
C       36.040410     26.053910     24.499966
C       35.546536     25.690063     23.251307
C       33.082403     18.083852     15.257485
C       32.685845     17.123346     14.335105
C       32.514772     17.435249     12.983472
C       32.810344     18.729728     12.559429
C       33.172551     19.727675     13.457565
O       33.597291     23.489292     22.432845
O       37.410820     24.802735     20.341085
O       31.470298     20.272919     16.544890
O       35.701025     20.621716     14.919193
H       32.490534     16.109823     14.668787
H       37.171331     22.310194     16.117680
H       37.786462     23.764008     18.048157
H       31.148884     21.214053     18.871941
H       31.863742     22.421268     20.927639
H       35.642293     26.925648     25.006199
H       38.367328     23.637492     24.943243
C       32.017944     16.381957     12.084633
C       37.534331     25.632303     26.475560
H       32.757278     18.969020     11.506314
H       32.119009     15.366114     12.468446
H       38.615859     25.632091     26.607884
N       31.468289     16.507136     10.946225
N       36.822085     25.870042     27.500041
C       24.903222     26.385639     15.713065
C       25.426091     27.007863     14.576082
C       25.203910     28.355882     14.332593
C       24.421084     29.104530     15.239414
C       23.867310     28.469958     16.380212
C       24.124459     27.099378     16.611577
C       24.165625     30.473938     15.020761
C       23.385957     31.196653     15.911500
C       22.830876     30.571124     17.025989
C       23.061222     29.223835     17.259446
C       22.394337     28.565723     18.395802
N       22.644572     27.203847     18.535757
C       23.525732     26.427826     17.783644
C       25.806858     29.018596     13.155869
N       25.555421     30.379620     13.024249
C       24.730395     31.153683     13.844115
C       21.851099     26.531432     19.536806
C       26.176336     31.112817     11.942580
C       20.531798     26.203649     19.217098
C       19.766486     25.561642     20.181866
C       20.277459     25.266164     21.451048
C       21.588387     25.648974     21.741206
C       22.396364     26.261582     20.789079
C       25.723493     30.939997     10.634517
C       26.268065     31.747171      9.638103
C       27.188288     32.746741      9.943731
C       27.631133     32.885395     11.257330
C       27.156797     32.055045     12.266599
O       21.646829     29.144356     19.153718
O       23.741551     25.274794     18.088379
O       24.514813     32.318391     13.590091
O       26.501783     28.432966     12.348671
H       25.938424     31.633984      8.611697
H       26.026975     26.437165     13.877520
H       25.094826     25.333621     15.894916
H       23.207672     32.249183     15.721114
H       22.204644     31.124682     17.716920
H       21.997730     25.466799     22.724001
H       18.743509     25.283194     19.951819
C       27.659250     33.696828      8.906897
C       19.389447     24.539570     22.371907
H       28.364560     33.649806     11.488237
H       27.549232     34.753164      9.149992
H       18.400977     24.335114     21.956110
C       29.019032     25.336730     13.914199
C       28.916751     24.041492     14.401208
C       28.986547     22.869063     13.572761
C       28.795425     21.803529     14.386534
C       28.648405     22.324031     15.712844
N       28.686083     23.697378     15.705878
C       27.591780     28.163058     17.541732
C       28.037402     27.714133     16.317691
C       28.233615     28.569430     15.185515
C       28.709521     27.790851     14.183214
C       28.750432     26.450489     14.691307
N       28.374750     26.420279     16.011912
C       28.634960     21.534519     16.840067
C       28.680561     22.055421     18.114805
C       28.880582     21.258141     19.287904
C       28.905664     22.110032     20.341903
C       28.665551     23.421243     19.813234
N       28.568802     23.382298     18.443856
C       28.445867     24.542148     20.595411
C       28.079639     25.768756     20.060009
C       27.646333     26.887893     20.850940
C       27.327492     27.878744     19.984527
C       27.602888     27.377098     18.671459
N       28.026694     26.071349     18.726062
H       29.147379     22.875592     12.506861
H       28.783552     20.754659     14.136639
H       28.979526     20.185025     19.278358
H       29.031618     21.879491     21.386877
H       28.971336     28.078141     13.178274
H       28.020348     29.625838     15.183279
H       26.968582     28.873285     20.196151
H       27.585430     26.895889     21.927170
C       29.312744     25.490847     12.474153
N       29.774058     25.471667      9.722982
C       28.342609     25.929961     11.577046
C       30.548477     25.117810     11.951185
C       30.736267     25.127716     10.582975
C       28.611683     25.899295     10.222934
C       28.476650     24.435676     22.069008
N       28.352113     24.505318     24.855025
C       29.424466     25.129102     22.817673
C       27.512025     23.713033     22.766209
C       27.484054     23.779637     24.145244
C       29.329031     25.133263     24.195440
Co      28.400989     24.890907     17.220576
H       28.687357     20.459438     16.719804
H       27.856765     26.211645      9.508484
H       27.375149     26.263777     11.928104
H       31.351042     24.808454     12.608856
H       31.690031     24.830376     10.159051
H       26.770193     23.128335     22.238527
H       26.721710     23.245074     24.702902
H       30.053808     25.676952     24.792837
H       30.220901     25.672751     22.325255
H       27.311779     29.204805     17.638547
F       19.982606     26.519642     17.987779
F       21.114725     20.985505     14.835502
F       23.719376     26.540287     21.080027
F       25.247022     22.090549     12.549028
F       30.807925     33.121258     18.613770
F       31.134897     29.906037     22.260449
F       37.450242     29.812522     13.677407
F       24.757006     30.004150     10.313921
F       27.654105     32.187958     13.550230
F       37.575505     22.636790     22.646295
F       34.549600     26.441370     22.656038
F       35.695126     25.307325     13.174022
F       33.396023     21.006376     12.980414
F       33.271377     17.723766     16.579346
F       25.049358     18.758676     23.404537
F       29.028336     17.575621     20.874070