substituents_xyz/manually_generated\CHBr2.xyz
 OpenBabel10122011383D

  4  3  0  0  0  0  0  0  0  0999 V2000
   -2.0663    1.2669    0.0000 C   0  0  0  0  0  3  0  0  0  0  0  0
   -1.7097    1.7713    0.8737 H   0  0  0  0  0  0  0  0  0  0  0  0
   -3.9763    1.2669    0.0000 Br  0  0  0  0  0  0  0  0  0  0  0  0
   -1.4297    2.1672   -1.5595 Br  0  0  0  0  0  0  0  0  0  0  0  0
  1  3  1  0  0  0  0
  1  2  1  0  0  0  0
  4  1  1  0  0  0  0
M  END
