../substituents_xyz/manually_generated/NF2.xyz
 OpenBabel10082018533D

  3  2  0  0  0  0  0  0  0  0999 V2000
   -1.6452   -0.5806    0.0000 N   0  0  0  0  0  2  0  0  0  0  0  0
   -1.2185    0.0227   -1.0451 F   0  0  0  0  0  0  0  0  0  0  0  0
   -1.2185   -1.7874    0.0000 F   0  0  0  0  0  0  0  0  0  0  0  0
  1  3  1  0  0  0  0
  2  1  1  0  0  0  0
M  END
