substituents_xyz/manually_generated\NH2.xyz
 OpenBabel10122011383D

  3  2  0  0  0  0  0  0  0  0999 V2000
   -1.6452   -0.5806   -0.0000 N   0  0  0  0  0  2  0  0  0  0  0  0
   -1.3118   -1.5235    0.0000 H   0  0  0  0  0  0  0  0  0  0  0  0
   -1.3118   -0.1092   -0.8165 H   0  0  0  0  0  0  0  0  0  0  0  0
  1  2  1  0  0  0  0
  3  1  1  0  0  0  0
M  END
