../substituents_xyz/manually_generated/NO2.xyz
 OpenBabel10092013013D

  3  2  0  0  0  0  0  0  0  0999 V2000
   -1.3511    0.8427    0.1310 N   0  0  0  0  0  2  0  0  0  0  0  0
    0.0086    0.8709    0.1310 O   0  0  0  0  0  1  0  0  0  0  0  0
   -2.0065   -0.3489    0.1310 O   0  0  0  0  0  1  0  0  0  0  0  0
  1  2  1  0  0  0  0
  1  3  1  0  0  0  0
M  END
