../substituents_xyz/manually_generated/PH3.xyz
 OpenBabel10082019213D

  4  3  0  0  0  0  0  0  0  0999 V2000
   -1.7742    0.5161   -0.0000 P   0  0  0  0  0  0  0  0  0  0  0  0
   -1.3242   -0.7567    0.0000 H   0  0  0  0  0  0  0  0  0  0  0  0
   -1.3242    1.1525    1.1023 H   0  0  0  0  0  0  0  0  0  0  0  0
   -3.1242    0.5161    0.0000 H   0  0  0  0  0  0  0  0  0  0  0  0
  1  2  1  0  0  0  0
  1  4  1  0  0  0  0
  1  3  1  0  0  0  0
M  END
